Pcp_File_Version=4
*** BLOCK A: BASIC INFORMATION *****************************************
Heading
Welcome to HYDRUS-1D
LUnit  TUnit  MUnit  (indicated units are obligatory for all input data)
mm
min
mmol
lWat   lChem lTemp  lSink lRoot lShort lWDep lScreen lVariabBC lEquil lInverse
 t     f     f      t     f     f      f     t       t         t         f
lSnow  lHP1   lMeteo  lVapor lActiveU lFluxes lIrrig  lDummy  lDummy  lDummy
 f       f       f       f       f       t       f       f       f       f
NMat    NLay  CosAlpha
  3       1       1
*** BLOCK B: WATER FLOW INFORMATION ************************************
MaxIt   TolTh   TolH       (maximum number of iterations and tolerances)
 100    0.001    0.1
TopInf WLayer KodTop InitCond
 t     t      -1       f
BotInf qGWLF FreeD SeepF KodBot DrainF  hSeep
 f     f     f     f     -1      f      0
         rTop         rBot        rRoot
           0            0            0
    hTab1   hTabN
    0.0001  1e+006
    Model   Hysteresis
      0          0
   thr     ths    Alfa      n         Ks       l
  0.057    0.41  0.0124    2.28    2.43194     0.5 
  0.078    0.43  0.0036    1.56   0.173333     0.5 
  0.067    0.45   0.002    1.41      0.075     0.5 
*** BLOCK C: TIME INFORMATION ******************************************
        dt       dtMin       dtMax     DMul    DMul2  ItMin ItMax  MPL
          5       0.005           5     1.3     0.7     3     7    10
      tInit        tMax
          0         720
  lPrintD  nPrintSteps tPrintInterval lEnter
     f           1          1440       t
TPrint(1),TPrint(2),...,TPrint(MPL)
         60         120         180         240         300         360 
        420         480         540         720 
*** BLOCK G: ROOT WATER UPTAKE INFORMATION *****************************
     Model  (0 - Feddes, 1 - S shape)  cRootMax    OmegaC
        1                                   1
       h50       P3
  -116.69         3
*** END OF INPUT FILE 'SELECTOR.IN' ************************************
