Pcp_File_Version=4
*** BLOCK I: ATMOSPHERIC INFORMATION  **********************************
   MaxAL                    (MaxAL = number of atmospheric data-records)
    144
 DailyVar  SinusVar  lLay  lBCCycles lInterc lDummy  lDummy  lDummy  lDummy  lDummy
       f       f       f       f       f       f       f       f       f       f
 hCritS                 (max. allowed pressure head at the soil surface)
      0
       tAtm        Prec       rSoil       rRoot      hCritA          rB          hB          ht    RootDepth
          5           0           0           0      1e+006           0           0           0 
         10           0           0           0      1e+006           0           0           0 
         15           0           0           0      1e+006           0           0           0 
         20           0           0           0      1e+006           0           0           0 
         25           0           0           0      1e+006           0           0           0 
         30    0.116667           0           0      1e+006           0           0           0 
         35    0.116667           0           0      1e+006           0           0           0 
         40    0.116667           0           0      1e+006           0           0           0 
         45    0.116667           0           0      1e+006           0           0           0 
         50    0.116667           0           0      1e+006           0           0           0 
         55           0           0           0      1e+006           0           0           0 
         60           0           0           0      1e+006           0           0           0 
         65           0           0           0      1e+006           0           0           0 
         70           0           0           0      1e+006           0           0           0 
         75           0           0           0      1e+006           0           0           0 
         80           0           0           0      1e+006           0           0           0 
         85           0           0           0      1e+006           0           0           0 
         90           0           0           0      1e+006           0           0           0 
         95           0           0           0      1e+006           0           0           0 
        100           0           0           0      1e+006           0           0           0 
        105           0           0           0      1e+006           0           0           0 
        110           0           0           0      1e+006           0           0           0 
        115           0           0           0      1e+006           0           0           0 
        120           0           0           0      1e+006           0           0           0 
        125           0           0           0      1e+006           0           0           0 
        130           0           0           0      1e+006           0           0           0 
        135           0           0           0      1e+006           0           0           0 
        140           0           0           0      1e+006           0           0           0 
        145           0           0           0      1e+006           0           0           0 
        150           0           0           0      1e+006           0           0           0 
        155           0           0           0      1e+006           0           0           0 
        160           0           0           0      1e+006           0           0           0 
        165           0           0           0      1e+006           0           0           0 
        170           0           0           0      1e+006           0           0           0 
        175           0           0           0      1e+006           0           0           0 
        180           0           0           0      1e+006           0           0           0 
        185           0           0           0      1e+006           0           0           0 
        190           0           0           0      1e+006           0           0           0 
        195           0           0           0      1e+006           0           0           0 
        200           0           0           0      1e+006           0           0           0 
        205           0           0           0      1e+006           0           0           0 
        210           0           0           0      1e+006           0           0           0 
        215           0           0           0      1e+006           0           0           0 
        220           0           0           0      1e+006           0           0           0 
        225           0           0           0      1e+006           0           0           0 
        230           0           0           0      1e+006           0           0           0 
        235           0           0           0      1e+006           0           0           0 
        240           0           0           0      1e+006           0           0           0 
        245           0           0           0      1e+006           0           0           0 
        250           0           0           0      1e+006           0           0           0 
        255           0           0           0      1e+006           0           0           0 
        260           0           0           0      1e+006           0           0           0 
        265           0           0           0      1e+006           0           0           0 
        270           0           0           0      1e+006           0           0           0 
        275           0           0           0      1e+006           0           0           0 
        280           0           0           0      1e+006           0           0           0 
        285           0           0           0      1e+006           0           0           0 
        290           0           0           0      1e+006           0           0           0 
        295    0.116667           0           0      1e+006           0           0           0 
        300    0.116667           0           0      1e+006           0           0           0 
        305    0.116667           0           0      1e+006           0           0           0 
        310    0.116667           0           0      1e+006           0           0           0 
        315    0.116667           0           0      1e+006           0           0           0 
        320    0.116667           0           0      1e+006           0           0           0 
        325    0.116667           0           0      1e+006           0           0           0 
        330    0.116667           0           0      1e+006           0           0           0 
        335    0.116667           0           0      1e+006           0           0           0 
        340    0.116667           0           0      1e+006           0           0           0 
        345    0.116667           0           0      1e+006           0           0           0 
        350    0.116667           0           0      1e+006           0           0           0 
        355    0.116667           0           0      1e+006           0           0           0 
        360    0.116667           0           0      1e+006           0           0           0 
        365    0.116667           0           0      1e+006           0           0           0 
        370    0.116667           0           0      1e+006           0           0           0 
        375    0.116667           0           0      1e+006           0           0           0 
        380    0.116667           0           0      1e+006           0           0           0 
        385    0.116667           0           0      1e+006           0           0           0 
        390    0.116667           0           0      1e+006           0           0           0 
        395    0.116667           0           0      1e+006           0           0           0 
        400    0.116667           0           0      1e+006           0           0           0 
        405    0.116667           0           0      1e+006           0           0           0 
        410    0.116667           0           0      1e+006           0           0           0 
        415    0.116667           0           0      1e+006           0           0           0 
        420    0.116667           0           0      1e+006           0           0           0 
        425    0.116667           0           0      1e+006           0           0           0 
        430    0.116667           0           0      1e+006           0           0           0 
        435    0.116667           0           0      1e+006           0           0           0 
        440    0.116667           0           0      1e+006           0           0           0 
        445    0.116667           0           0      1e+006           0           0           0 
        450    0.116667           0           0      1e+006           0           0           0 
        455    0.116667           0           0      1e+006           0           0           0 
        460    0.116667           0           0      1e+006           0           0           0 
        465    0.116667           0           0      1e+006           0           0           0 
        470    0.116667           0           0      1e+006           0           0           0 
        475    0.116667           0           0      1e+006           0           0           0 
        480    0.116667           0           0      1e+006           0           0           0 
        485    0.116667           0           0      1e+006           0           0           0 
        490    0.116667           0           0      1e+006           0           0           0 
        495    0.116667           0           0      1e+006           0           0           0 
        500    0.116667           0           0      1e+006           0           0           0 
        505    0.116667           0           0      1e+006           0           0           0 
        510    0.116667           0           0      1e+006           0           0           0 
        515    0.116667           0           0      1e+006           0           0           0 
        520    0.116667           0           0      1e+006           0           0           0 
        525    0.116667           0           0      1e+006           0           0           0 
        530    0.116667           0           0      1e+006           0           0           0 
        535    0.116667           0           0      1e+006           0           0           0 
        540    0.116667           0           0      1e+006           0           0           0 
        545    0.116667           0           0      1e+006           0           0           0 
        550    0.116667           0           0      1e+006           0           0           0 
        555    0.116667           0           0      1e+006           0           0           0 
        560    0.116667           0           0      1e+006           0           0           0 
        565    0.116667           0           0      1e+006           0           0           0 
        570    0.116667           0           0      1e+006           0           0           0 
        575    0.116667           0           0      1e+006           0           0           0 
        580    0.116667           0           0      1e+006           0           0           0 
        585    0.116667           0           0      1e+006           0           0           0 
        590    0.116667           0           0      1e+006           0           0           0 
        595    0.116667           0           0      1e+006           0           0           0 
        600    0.116667           0           0      1e+006           0           0           0 
        605    0.116667           0           0      1e+006           0           0           0 
        610    0.116667           0           0      1e+006           0           0           0 
        615    0.116667           0           0      1e+006           0           0           0 
        620    0.116667           0           0      1e+006           0           0           0 
        625    0.116667           0           0      1e+006           0           0           0 
        630    0.116667           0           0      1e+006           0           0           0 
        635    0.116667           0           0      1e+006           0           0           0 
        640    0.116667           0           0      1e+006           0           0           0 
        645           0           0           0      1e+006           0           0           0 
        650           0           0           0      1e+006           0           0           0 
        655           0           0           0      1e+006           0           0           0 
        660           0           0           0      1e+006           0           0           0 
        665           0           0           0      1e+006           0           0           0 
        670           0           0           0      1e+006           0           0           0 
        675           0           0           0      1e+006           0           0           0 
        680           0           0           0      1e+006           0           0           0 
        685           0           0           0      1e+006           0           0           0 
        690           0           0           0      1e+006           0           0           0 
        695           0           0           0      1e+006           0           0           0 
        700           0           0           0      1e+006           0           0           0 
        705           0           0           0      1e+006           0           0           0 
        710           0           0           0      1e+006           0           0           0 
        715           0           0           0      1e+006           0           0           0 
        720           0           0           0      1e+006           0           0           0 
end*** END OF INPUT FILE 'ATMOSPH.IN' **********************************
