Pcp_File_Version=4
    2
    1  0.000000e+000  1.000000e+000  1.000000e+000
    2 -2.290000e+003  1.000000e+000  1.000000e+000
  201    0    0    1 x         h      Mat  Lay      Beta           Axz            Bxz            Dxz          Temp          Conc 
    1 -0.000000e+000 -2.000000e+004    1    1  1.000000e+000  1.000000e+000  1.000000e+000  1.000000e+000              
    2 -1.145000e+001 -2.000000e+004    1    1  9.950000e-001  1.000000e+000  1.000000e+000  1.000000e+000              
    3 -2.290000e+001 -2.000000e+004    1    1  9.900000e-001  1.000000e+000  1.000000e+000  1.000000e+000              
    4 -3.435000e+001 -2.000000e+004    1    1  9.850000e-001  1.000000e+000  1.000000e+000  1.000000e+000              
    5 -4.580000e+001 -2.000000e+004    1    1  9.800000e-001  1.000000e+000  1.000000e+000  1.000000e+000              
    6 -5.725000e+001 -2.000000e+004    1    1  9.750000e-001  1.000000e+000  1.000000e+000  1.000000e+000              
    7 -6.870000e+001 -2.000000e+004    1    1  9.700000e-001  1.000000e+000  1.000000e+000  1.000000e+000              
    8 -8.015000e+001 -2.000000e+004    1    1  9.650000e-001  1.000000e+000  1.000000e+000  1.000000e+000              
    9 -9.160000e+001 -2.000000e+004    1    1  9.600000e-001  1.000000e+000  1.000000e+000  1.000000e+000              
   10 -1.030500e+002 -2.000000e+004    1    1  9.550000e-001  1.000000e+000  1.000000e+000  1.000000e+000              
   11 -1.145000e+002 -2.000000e+004    1    1  9.500000e-001  1.000000e+000  1.000000e+000  1.000000e+000              
   12 -1.259500e+002 -2.000000e+004    1    1  9.450000e-001  1.000000e+000  1.000000e+000  1.000000e+000              
   13 -1.374000e+002 -2.000000e+004    1    1  9.400000e-001  1.000000e+000  1.000000e+000  1.000000e+000              
   14 -1.488500e+002 -2.000000e+004    1    1  9.350000e-001  1.000000e+000  1.000000e+000  1.000000e+000              
   15 -1.603000e+002 -2.000000e+004    1    1  9.300000e-001  1.000000e+000  1.000000e+000  1.000000e+000              
   16 -1.717500e+002 -2.000000e+004    1    1  9.250000e-001  1.000000e+000  1.000000e+000  1.000000e+000              
   17 -1.800000e+002 -2.000000e+004    2    1  9.213974e-001  1.000000e+000  1.000000e+000  1.000000e+000              
   18 -1.946500e+002 -2.000000e+004    2    1  9.150000e-001  1.000000e+000  1.000000e+000  1.000000e+000              
   19 -2.061000e+002 -2.000000e+004    2    1  9.100000e-001  1.000000e+000  1.000000e+000  1.000000e+000              
   20 -2.175500e+002 -2.000000e+004    2    1  9.050000e-001  1.000000e+000  1.000000e+000  1.000000e+000              
   21 -2.290000e+002 -2.000000e+004    2    1  9.000000e-001  1.000000e+000  1.000000e+000  1.000000e+000              
   22 -2.404500e+002 -2.000000e+004    2    1  8.950000e-001  1.000000e+000  1.000000e+000  1.000000e+000              
   23 -2.519000e+002 -2.000000e+004    2    1  8.900000e-001  1.000000e+000  1.000000e+000  1.000000e+000              
   24 -2.633500e+002 -2.000000e+004    2    1  8.850000e-001  1.000000e+000  1.000000e+000  1.000000e+000              
   25 -2.748000e+002 -2.000000e+004    2    1  8.800000e-001  1.000000e+000  1.000000e+000  1.000000e+000              
   26 -2.862500e+002 -2.000000e+004    2    1  8.750000e-001  1.000000e+000  1.000000e+000  1.000000e+000              
   27 -2.977000e+002 -2.000000e+004    2    1  8.700000e-001  1.000000e+000  1.000000e+000  1.000000e+000              
   28 -3.091500e+002 -2.000000e+004    2    1  8.650000e-001  1.000000e+000  1.000000e+000  1.000000e+000              
   29 -3.206000e+002 -2.000000e+004    2    1  8.600000e-001  1.000000e+000  1.000000e+000  1.000000e+000              
   30 -3.320500e+002 -2.000000e+004    2    1  8.550000e-001  1.000000e+000  1.000000e+000  1.000000e+000              
   31 -3.435000e+002 -2.000000e+004    2    1  8.500000e-001  1.000000e+000  1.000000e+000  1.000000e+000              
   32 -3.549500e+002 -2.000000e+004    2    1  8.450000e-001  1.000000e+000  1.000000e+000  1.000000e+000              
   33 -3.664000e+002 -2.000000e+004    2    1  8.400000e-001  1.000000e+000  1.000000e+000  1.000000e+000              
   34 -3.778500e+002 -2.000000e+004    2    1  8.350000e-001  1.000000e+000  1.000000e+000  1.000000e+000              
   35 -3.893000e+002 -2.000000e+004    2    1  8.300000e-001  1.000000e+000  1.000000e+000  1.000000e+000              
   36 -4.007500e+002 -2.000000e+004    2    1  8.250000e-001  1.000000e+000  1.000000e+000  1.000000e+000              
   37 -4.122000e+002 -2.000000e+004    2    1  8.200000e-001  1.000000e+000  1.000000e+000  1.000000e+000              
   38 -4.236500e+002 -2.000000e+004    2    1  8.150000e-001  1.000000e+000  1.000000e+000  1.000000e+000              
   39 -4.351000e+002 -2.000000e+004    2    1  8.100000e-001  1.000000e+000  1.000000e+000  1.000000e+000              
   40 -4.465500e+002 -2.000000e+004    2    1  8.050000e-001  1.000000e+000  1.000000e+000  1.000000e+000              
   41 -4.580000e+002 -2.000000e+004    2    1  8.000000e-001  1.000000e+000  1.000000e+000  1.000000e+000              
   42 -4.694500e+002 -2.000000e+004    2    1  7.950000e-001  1.000000e+000  1.000000e+000  1.000000e+000              
   43 -4.809000e+002 -2.000000e+004    2    1  7.900000e-001  1.000000e+000  1.000000e+000  1.000000e+000              
   44 -4.923500e+002 -2.000000e+004    2    1  7.850000e-001  1.000000e+000  1.000000e+000  1.000000e+000              
   45 -5.038000e+002 -2.000000e+004    2    1  7.800000e-001  1.000000e+000  1.000000e+000  1.000000e+000              
   46 -5.152500e+002 -2.000000e+004    2    1  7.750000e-001  1.000000e+000  1.000000e+000  1.000000e+000              
   47 -5.267000e+002 -2.000000e+004    2    1  7.700000e-001  1.000000e+000  1.000000e+000  1.000000e+000              
   48 -5.381500e+002 -2.000000e+004    2    1  7.650000e-001  1.000000e+000  1.000000e+000  1.000000e+000              
   49 -5.496000e+002 -2.000000e+004    2    1  7.600000e-001  1.000000e+000  1.000000e+000  1.000000e+000              
   50 -5.610500e+002 -2.000000e+004    2    1  7.550000e-001  1.000000e+000  1.000000e+000  1.000000e+000              
   51 -5.725000e+002 -2.000000e+004    2    1  7.500000e-001  1.000000e+000  1.000000e+000  1.000000e+000              
   52 -5.839500e+002 -2.000000e+004    2    1  7.450000e-001  1.000000e+000  1.000000e+000  1.000000e+000              
   53 -5.954000e+002 -2.000000e+004    2    1  7.400000e-001  1.000000e+000  1.000000e+000  1.000000e+000              
   54 -6.068500e+002 -2.000000e+004    2    1  7.350000e-001  1.000000e+000  1.000000e+000  1.000000e+000              
   55 -6.183000e+002 -2.000000e+004    2    1  7.300000e-001  1.000000e+000  1.000000e+000  1.000000e+000              
   56 -6.297500e+002 -2.000000e+004    2    1  7.250000e-001  1.000000e+000  1.000000e+000  1.000000e+000              
   57 -6.412000e+002 -2.000000e+004    2    1  7.200000e-001  1.000000e+000  1.000000e+000  1.000000e+000              
   58 -6.526500e+002 -2.000000e+004    2    1  7.150000e-001  1.000000e+000  1.000000e+000  1.000000e+000              
   59 -6.641000e+002 -2.000000e+004    2    1  7.100000e-001  1.000000e+000  1.000000e+000  1.000000e+000              
   60 -6.755500e+002 -2.000000e+004    2    1  7.050000e-001  1.000000e+000  1.000000e+000  1.000000e+000              
   61 -6.870000e+002 -2.000000e+004    2    1  7.000000e-001  1.000000e+000  1.000000e+000  1.000000e+000              
   62 -6.984500e+002 -2.000000e+004    2    1  6.950000e-001  1.000000e+000  1.000000e+000  1.000000e+000              
   63 -7.099000e+002 -2.000000e+004    2    1  6.900000e-001  1.000000e+000  1.000000e+000  1.000000e+000              
   64 -7.213500e+002 -2.000000e+004    2    1  6.850000e-001  1.000000e+000  1.000000e+000  1.000000e+000              
   65 -7.328000e+002 -2.000000e+004    2    1  6.800000e-001  1.000000e+000  1.000000e+000  1.000000e+000              
   66 -7.442500e+002 -2.000000e+004    2    1  6.750000e-001  1.000000e+000  1.000000e+000  1.000000e+000              
   67 -7.557000e+002 -2.000000e+004    2    1  6.700000e-001  1.000000e+000  1.000000e+000  1.000000e+000              
   68 -7.671500e+002 -2.000000e+004    2    1  6.650000e-001  1.000000e+000  1.000000e+000  1.000000e+000              
   69 -7.786000e+002 -2.000000e+004    2    1  6.600000e-001  1.000000e+000  1.000000e+000  1.000000e+000              
   70 -7.900500e+002 -2.000000e+004    2    1  6.550000e-001  1.000000e+000  1.000000e+000  1.000000e+000              
   71 -8.015000e+002 -2.000000e+004    2    1  6.500000e-001  1.000000e+000  1.000000e+000  1.000000e+000              
   72 -8.129500e+002 -2.000000e+004    2    1  6.450000e-001  1.000000e+000  1.000000e+000  1.000000e+000              
   73 -8.244000e+002 -2.000000e+004    2    1  6.400000e-001  1.000000e+000  1.000000e+000  1.000000e+000              
   74 -8.358500e+002 -2.000000e+004    2    1  6.350000e-001  1.000000e+000  1.000000e+000  1.000000e+000              
   75 -8.473000e+002 -2.000000e+004    2    1  6.300000e-001  1.000000e+000  1.000000e+000  1.000000e+000              
   76 -8.587500e+002 -2.000000e+004    2    1  6.250000e-001  1.000000e+000  1.000000e+000  1.000000e+000              
   77 -8.702000e+002 -2.000000e+004    2    1  6.200000e-001  1.000000e+000  1.000000e+000  1.000000e+000              
   78 -8.816500e+002 -2.000000e+004    2    1  6.150000e-001  1.000000e+000  1.000000e+000  1.000000e+000              
   79 -8.931000e+002 -2.000000e+004    2    1  6.100000e-001  1.000000e+000  1.000000e+000  1.000000e+000              
   80 -9.045500e+002 -2.000000e+004    2    1  6.050000e-001  1.000000e+000  1.000000e+000  1.000000e+000              
   81 -9.160000e+002 -2.000000e+004    2    1  6.000000e-001  1.000000e+000  1.000000e+000  1.000000e+000              
   82 -9.274500e+002 -2.000000e+004    2    1  5.950000e-001  1.000000e+000  1.000000e+000  1.000000e+000              
   83 -9.400000e+002 -2.000000e+004    3    1  5.895197e-001  1.000000e+000  1.000000e+000  1.000000e+000              
   84 -9.503500e+002 -2.000000e+004    3    1  5.850000e-001  1.000000e+000  1.000000e+000  1.000000e+000              
   85 -9.618000e+002 -2.000000e+004    3    1  5.800000e-001  1.000000e+000  1.000000e+000  1.000000e+000              
   86 -9.732500e+002 -2.000000e+004    3    1  5.750000e-001  1.000000e+000  1.000000e+000  1.000000e+000              
   87 -9.847000e+002 -2.000000e+004    3    1  5.700000e-001  1.000000e+000  1.000000e+000  1.000000e+000              
   88 -9.961500e+002 -2.000000e+004    3    1  5.650000e-001  1.000000e+000  1.000000e+000  1.000000e+000              
   89 -1.007600e+003 -2.000000e+004    3    1  5.600000e-001  1.000000e+000  1.000000e+000  1.000000e+000              
   90 -1.019050e+003 -2.000000e+004    3    1  5.550000e-001  1.000000e+000  1.000000e+000  1.000000e+000              
   91 -1.030500e+003 -2.000000e+004    3    1  5.500000e-001  1.000000e+000  1.000000e+000  1.000000e+000              
   92 -1.041950e+003 -2.000000e+004    3    1  5.450000e-001  1.000000e+000  1.000000e+000  1.000000e+000              
   93 -1.053400e+003 -2.000000e+004    3    1  5.400000e-001  1.000000e+000  1.000000e+000  1.000000e+000              
   94 -1.064850e+003 -2.000000e+004    3    1  5.350000e-001  1.000000e+000  1.000000e+000  1.000000e+000              
   95 -1.076300e+003 -2.000000e+004    3    1  5.300000e-001  1.000000e+000  1.000000e+000  1.000000e+000              
   96 -1.087750e+003 -2.000000e+004    3    1  5.250000e-001  1.000000e+000  1.000000e+000  1.000000e+000              
   97 -1.099200e+003 -2.000000e+004    3    1  5.200000e-001  1.000000e+000  1.000000e+000  1.000000e+000              
   98 -1.110650e+003 -2.000000e+004    3    1  5.150000e-001  1.000000e+000  1.000000e+000  1.000000e+000              
   99 -1.122100e+003 -2.000000e+004    3    1  5.100000e-001  1.000000e+000  1.000000e+000  1.000000e+000              
  100 -1.133550e+003 -2.000000e+004    3    1  5.050000e-001  1.000000e+000  1.000000e+000  1.000000e+000              
  101 -1.145000e+003 -2.000000e+004    3    1  5.000000e-001  1.000000e+000  1.000000e+000  1.000000e+000              
  102 -1.156450e+003 -2.000000e+004    3    1  4.950000e-001  1.000000e+000  1.000000e+000  1.000000e+000              
  103 -1.167900e+003 -2.000000e+004    3    1  4.900000e-001  1.000000e+000  1.000000e+000  1.000000e+000              
  104 -1.179350e+003 -2.000000e+004    3    1  4.850000e-001  1.000000e+000  1.000000e+000  1.000000e+000              
  105 -1.190800e+003 -2.000000e+004    3    1  4.800000e-001  1.000000e+000  1.000000e+000  1.000000e+000              
  106 -1.202250e+003 -2.000000e+004    3    1  4.750000e-001  1.000000e+000  1.000000e+000  1.000000e+000              
  107 -1.213700e+003 -2.000000e+004    3    1  4.700000e-001  1.000000e+000  1.000000e+000  1.000000e+000              
  108 -1.225150e+003 -2.000000e+004    3    1  4.650000e-001  1.000000e+000  1.000000e+000  1.000000e+000              
  109 -1.236600e+003 -2.000000e+004    3    1  4.600000e-001  1.000000e+000  1.000000e+000  1.000000e+000              
  110 -1.248050e+003 -2.000000e+004    3    1  4.550000e-001  1.000000e+000  1.000000e+000  1.000000e+000              
  111 -1.259500e+003 -2.000000e+004    3    1  4.500000e-001  1.000000e+000  1.000000e+000  1.000000e+000              
  112 -1.270950e+003 -2.000000e+004    3    1  4.450000e-001  1.000000e+000  1.000000e+000  1.000000e+000              
  113 -1.282400e+003 -2.000000e+004    3    1  4.400000e-001  1.000000e+000  1.000000e+000  1.000000e+000              
  114 -1.293850e+003 -2.000000e+004    3    1  4.350000e-001  1.000000e+000  1.000000e+000  1.000000e+000              
  115 -1.305300e+003 -2.000000e+004    3    1  4.300000e-001  1.000000e+000  1.000000e+000  1.000000e+000              
  116 -1.316750e+003 -2.000000e+004    3    1  4.250000e-001  1.000000e+000  1.000000e+000  1.000000e+000              
  117 -1.328200e+003 -2.000000e+004    3    1  4.200000e-001  1.000000e+000  1.000000e+000  1.000000e+000              
  118 -1.339650e+003 -2.000000e+004    3    1  4.150000e-001  1.000000e+000  1.000000e+000  1.000000e+000              
  119 -1.351100e+003 -2.000000e+004    3    1  4.100000e-001  1.000000e+000  1.000000e+000  1.000000e+000              
  120 -1.362550e+003 -2.000000e+004    3    1  4.050000e-001  1.000000e+000  1.000000e+000  1.000000e+000              
  121 -1.374000e+003 -2.000000e+004    3    1  4.000000e-001  1.000000e+000  1.000000e+000  1.000000e+000              
  122 -1.385450e+003 -2.000000e+004    3    1  3.950000e-001  1.000000e+000  1.000000e+000  1.000000e+000              
  123 -1.396900e+003 -2.000000e+004    3    1  3.900000e-001  1.000000e+000  1.000000e+000  1.000000e+000              
  124 -1.408350e+003 -2.000000e+004    3    1  3.850000e-001  1.000000e+000  1.000000e+000  1.000000e+000              
  125 -1.419800e+003 -2.000000e+004    3    1  3.800000e-001  1.000000e+000  1.000000e+000  1.000000e+000              
  126 -1.431250e+003 -2.000000e+004    3    1  3.750000e-001  1.000000e+000  1.000000e+000  1.000000e+000              
  127 -1.442700e+003 -2.000000e+004    3    1  3.700000e-001  1.000000e+000  1.000000e+000  1.000000e+000              
  128 -1.454150e+003 -2.000000e+004    3    1  3.650000e-001  1.000000e+000  1.000000e+000  1.000000e+000              
  129 -1.465600e+003 -2.000000e+004    3    1  3.600000e-001  1.000000e+000  1.000000e+000  1.000000e+000              
  130 -1.477050e+003 -2.000000e+004    3    1  3.550000e-001  1.000000e+000  1.000000e+000  1.000000e+000              
  131 -1.488500e+003 -2.000000e+004    3    1  3.500000e-001  1.000000e+000  1.000000e+000  1.000000e+000              
  132 -1.499950e+003 -2.000000e+004    3    1  3.450000e-001  1.000000e+000  1.000000e+000  1.000000e+000              
  133 -1.511400e+003 -2.000000e+004    3    1  3.400000e-001  1.000000e+000  1.000000e+000  1.000000e+000              
  134 -1.522850e+003 -2.000000e+004    3    1  3.350000e-001  1.000000e+000  1.000000e+000  1.000000e+000              
  135 -1.534300e+003 -2.000000e+004    3    1  3.300000e-001  1.000000e+000  1.000000e+000  1.000000e+000              
  136 -1.545750e+003 -2.000000e+004    3    1  3.250000e-001  1.000000e+000  1.000000e+000  1.000000e+000              
  137 -1.557200e+003 -2.000000e+004    3    1  3.200000e-001  1.000000e+000  1.000000e+000  1.000000e+000              
  138 -1.568650e+003 -2.000000e+004    3    1  3.150000e-001  1.000000e+000  1.000000e+000  1.000000e+000              
  139 -1.580100e+003 -2.000000e+004    3    1  3.100000e-001  1.000000e+000  1.000000e+000  1.000000e+000              
  140 -1.591550e+003 -2.000000e+004    3    1  3.050000e-001  1.000000e+000  1.000000e+000  1.000000e+000              
  141 -1.603000e+003 -2.000000e+004    3    1  3.000000e-001  1.000000e+000  1.000000e+000  1.000000e+000              
  142 -1.614450e+003 -2.000000e+004    3    1  2.950000e-001  1.000000e+000  1.000000e+000  1.000000e+000              
  143 -1.625900e+003 -2.000000e+004    3    1  2.900000e-001  1.000000e+000  1.000000e+000  1.000000e+000              
  144 -1.637350e+003 -2.000000e+004    3    1  2.850000e-001  1.000000e+000  1.000000e+000  1.000000e+000              
  145 -1.648800e+003 -2.000000e+004    3    1  2.800000e-001  1.000000e+000  1.000000e+000  1.000000e+000              
  146 -1.660250e+003 -2.000000e+004    3    1  2.750000e-001  1.000000e+000  1.000000e+000  1.000000e+000              
  147 -1.671700e+003 -2.000000e+004    3    1  2.700000e-001  1.000000e+000  1.000000e+000  1.000000e+000              
  148 -1.683150e+003 -2.000000e+004    3    1  2.650000e-001  1.000000e+000  1.000000e+000  1.000000e+000              
  149 -1.694600e+003 -2.000000e+004    3    1  2.600000e-001  1.000000e+000  1.000000e+000  1.000000e+000              
  150 -1.706050e+003 -2.000000e+004    3    1  2.550000e-001  1.000000e+000  1.000000e+000  1.000000e+000              
  151 -1.717500e+003 -2.000000e+004    3    1  2.500000e-001  1.000000e+000  1.000000e+000  1.000000e+000              
  152 -1.728950e+003 -2.000000e+004    3    1  2.450000e-001  1.000000e+000  1.000000e+000  1.000000e+000              
  153 -1.740400e+003 -2.000000e+004    3    1  2.400000e-001  1.000000e+000  1.000000e+000  1.000000e+000              
  154 -1.751850e+003 -2.000000e+004    3    1  2.350000e-001  1.000000e+000  1.000000e+000  1.000000e+000              
  155 -1.763300e+003 -2.000000e+004    3    1  2.300000e-001  1.000000e+000  1.000000e+000  1.000000e+000              
  156 -1.774750e+003 -2.000000e+004    3    1  2.250000e-001  1.000000e+000  1.000000e+000  1.000000e+000              
  157 -1.786200e+003 -2.000000e+004    3    1  2.200000e-001  1.000000e+000  1.000000e+000  1.000000e+000              
  158 -1.797650e+003 -2.000000e+004    3    1  2.150000e-001  1.000000e+000  1.000000e+000  1.000000e+000              
  159 -1.809100e+003 -2.000000e+004    3    1  2.100000e-001  1.000000e+000  1.000000e+000  1.000000e+000              
  160 -1.820550e+003 -2.000000e+004    3    1  2.050000e-001  1.000000e+000  1.000000e+000  1.000000e+000              
  161 -1.832000e+003 -2.000000e+004    3    1  2.000000e-001  1.000000e+000  1.000000e+000  1.000000e+000              
  162 -1.843450e+003 -2.000000e+004    3    1  1.950000e-001  1.000000e+000  1.000000e+000  1.000000e+000              
  163 -1.854900e+003 -2.000000e+004    3    1  1.900000e-001  1.000000e+000  1.000000e+000  1.000000e+000              
  164 -1.866350e+003 -2.000000e+004    3    1  1.850000e-001  1.000000e+000  1.000000e+000  1.000000e+000              
  165 -1.877800e+003 -2.000000e+004    3    1  1.800000e-001  1.000000e+000  1.000000e+000  1.000000e+000              
  166 -1.889250e+003 -2.000000e+004    3    1  1.750000e-001  1.000000e+000  1.000000e+000  1.000000e+000              
  167 -1.900700e+003 -2.000000e+004    3    1  1.700000e-001  1.000000e+000  1.000000e+000  1.000000e+000              
  168 -1.912150e+003 -2.000000e+004    3    1  1.650000e-001  1.000000e+000  1.000000e+000  1.000000e+000              
  169 -1.923600e+003 -2.000000e+004    3    1  1.600000e-001  1.000000e+000  1.000000e+000  1.000000e+000              
  170 -1.935050e+003 -2.000000e+004    3    1  1.550000e-001  1.000000e+000  1.000000e+000  1.000000e+000              
  171 -1.946500e+003 -2.000000e+004    3    1  1.500000e-001  1.000000e+000  1.000000e+000  1.000000e+000              
  172 -1.957950e+003 -2.000000e+004    3    1  1.450000e-001  1.000000e+000  1.000000e+000  1.000000e+000              
  173 -1.969400e+003 -2.000000e+004    3    1  1.400000e-001  1.000000e+000  1.000000e+000  1.000000e+000              
  174 -1.980850e+003 -2.000000e+004    3    1  1.350000e-001  1.000000e+000  1.000000e+000  1.000000e+000              
  175 -1.992300e+003 -2.000000e+004    3    1  1.300000e-001  1.000000e+000  1.000000e+000  1.000000e+000              
  176 -2.003750e+003 -2.000000e+004    3    1  1.250000e-001  1.000000e+000  1.000000e+000  1.000000e+000              
  177 -2.015200e+003 -2.000000e+004    3    1  1.200000e-001  1.000000e+000  1.000000e+000  1.000000e+000              
  178 -2.026650e+003 -2.000000e+004    3    1  1.150000e-001  1.000000e+000  1.000000e+000  1.000000e+000              
  179 -2.038100e+003 -2.000000e+004    3    1  1.100000e-001  1.000000e+000  1.000000e+000  1.000000e+000              
  180 -2.049550e+003 -2.000000e+004    3    1  1.050000e-001  1.000000e+000  1.000000e+000  1.000000e+000              
  181 -2.061000e+003 -2.000000e+004    3    1  1.000000e-001  1.000000e+000  1.000000e+000  1.000000e+000              
  182 -2.072450e+003 -2.000000e+004    3    1  9.500002e-002  1.000000e+000  1.000000e+000  1.000000e+000              
  183 -2.083900e+003 -2.000000e+004    3    1  9.000004e-002  1.000000e+000  1.000000e+000  1.000000e+000              
  184 -2.095350e+003 -2.000000e+004    3    1  8.499996e-002  1.000000e+000  1.000000e+000  1.000000e+000              
  185 -2.106800e+003 -2.000000e+004    3    1  7.999998e-002  1.000000e+000  1.000000e+000  1.000000e+000              
  186 -2.118250e+003 -2.000000e+004    3    1  7.500000e-002  1.000000e+000  1.000000e+000  1.000000e+000              
  187 -2.129700e+003 -2.000000e+004    3    1  7.000002e-002  1.000000e+000  1.000000e+000  1.000000e+000              
  188 -2.141150e+003 -2.000000e+004    3    1  6.500004e-002  1.000000e+000  1.000000e+000  1.000000e+000              
  189 -2.152600e+003 -2.000000e+004    3    1  5.999996e-002  1.000000e+000  1.000000e+000  1.000000e+000              
  190 -2.164050e+003 -2.000000e+004    3    1  5.499998e-002  1.000000e+000  1.000000e+000  1.000000e+000              
  191 -2.175500e+003 -2.000000e+004    3    1  5.000000e-002  1.000000e+000  1.000000e+000  1.000000e+000              
  192 -2.186950e+003 -2.000000e+004    3    1  4.500002e-002  1.000000e+000  1.000000e+000  1.000000e+000              
  193 -2.198400e+003 -2.000000e+004    3    1  4.000004e-002  1.000000e+000  1.000000e+000  1.000000e+000              
  194 -2.209850e+003 -2.000000e+004    3    1  3.499996e-002  1.000000e+000  1.000000e+000  1.000000e+000              
  195 -2.221300e+003 -2.000000e+004    3    1  2.999998e-002  1.000000e+000  1.000000e+000  1.000000e+000              
  196 -2.232750e+003 -2.000000e+004    3    1  2.500000e-002  1.000000e+000  1.000000e+000  1.000000e+000              
  197 -2.244200e+003 -2.000000e+004    3    1  2.000002e-002  1.000000e+000  1.000000e+000  1.000000e+000              
  198 -2.255650e+003 -2.000000e+004    3    1  1.500004e-002  1.000000e+000  1.000000e+000  1.000000e+000              
  199 -2.267100e+003 -2.000000e+004    3    1  9.999957e-003  1.000000e+000  1.000000e+000  1.000000e+000              
  200 -2.278550e+003 -2.000000e+004    3    1  4.999978e-003  1.000000e+000  1.000000e+000  1.000000e+000              
  201 -2.290000e+003 -2.000000e+004    3    1  0.000000e+000  1.000000e+000  1.000000e+000  1.000000e+000              
    0
